ROMS/TOMS Framework: July 18, 2017
===================

Copyright (c) 2002-2017 The ROMS/TOMS Group
  Licensed under a MIT/X style license
  See License_ROMS.txt

svn: $HeadURL: https://www.myroms.org/svn/src/trunk/ROMS/Version $
svn: $LastChangedBy: arango $
svn: $LastChangedRevision: 854 $
svn: $LastChangedDate: 2017-07-18 20:28:45 -0300 (Tue, 18 Jul 2017) $